OPT_V10/Two_days_first_run/powerflow_results_t21.txt
Pandapower Network Debug Info
==================================================

BUS:
       vm_pu  va_degree      p_mw    q_mvar
0   0.992217   0.154235  0.001111  0.001120
1   0.987633   0.254672  0.001535  0.002347
2   0.983710   0.348220  0.001802  0.003158
3   0.987724   0.253279  0.002902  0.004800
4   0.988176   0.220887  0.003500  0.005367
5   0.992481   0.150580  0.002947  0.005613
6   0.990744   0.151600  0.001220  0.000971
7   0.997383   0.004965  0.002132  0.001761
8   0.997643   0.034359  0.002448  0.002633
9   0.999829   0.000535  0.011199  0.010206
10  0.999836   0.000506  0.010087  0.007814
11  0.999853   0.000466  0.012664  0.009078
12  0.999751   0.001112  0.011143  0.007195
13  0.999721   0.001138  0.014316  0.009846
14  0.999731   0.001175  0.014674  0.013824
15  0.999929   0.000416  0.000000  0.000000
16  0.999929   0.000423  0.000000  0.000000
17  0.999757   0.001142  0.000000  0.000000
18  0.999757   0.001152  0.000000  0.000000
19  1.000000   0.000000 -0.041474 -0.043644
20  1.000000   0.000006  0.000000  0.000000
21  1.000000   0.000000 -0.052537 -0.052317
22  1.000000   0.000007  0.000000  0.000000
--------------------------------------------------

LINE:
    p_from_mw  q_from_mvar   p_to_mw  q_to_mvar         pl_mw       ql_mvar  i_from_ka   i_to_ka      i_ka  vm_from_pu  va_from_degree  vm_to_pu  va_to_degree  loading_percent
0    0.041464     0.039644 -0.041461  -0.039642  3.218969e-06  2.509883e-06   0.002208  0.002208  0.002208    1.000000        0.000006  0.999929      0.000416         0.960019
1    0.052527     0.048317 -0.052513  -0.048306  1.370122e-05  1.068307e-05   0.002747  0.002747  0.002747    1.000000        0.000007  0.999757      0.001142         1.194358
2    0.033953     0.027101 -0.033951  -0.027099  2.611062e-06  2.035888e-06   0.001672  0.001672  0.001672    0.999929        0.000416  0.999853      0.000466         0.727063
3    0.011143     0.007195 -0.011143  -0.007195  6.087115e-08  4.746224e-08   0.000511  0.000511  0.000511    0.999757        0.001142  0.999751      0.001112         0.222024
4    0.028991     0.023671 -0.028990  -0.023670  7.663052e-07  5.975008e-07   0.001441  0.001441  0.001441    0.999757        0.001142  0.999731      0.001175         0.626483
5    0.007498     0.011541 -0.007409  -0.011471  8.859748e-05  6.908091e-05   0.019865  0.019865  0.019865    0.999929        0.000423  0.992217      0.154235         8.637121
6    0.004216     0.006623 -0.004168  -0.006586  4.784673e-05  3.730688e-05   0.011335  0.011335  0.011335    0.999757        0.001152  0.992481      0.150580         4.928309
7    0.002138     0.001765 -0.002132  -0.001761  5.193760e-06  4.049660e-06   0.004002  0.004002  0.004002    0.999757        0.001152  0.997383      0.004965         1.739984
8    0.006016     0.008053 -0.005999  -0.008039  1.738122e-05  1.355243e-05   0.014512  0.014512  0.014512    0.999757        0.001152  0.997643      0.034359         6.309667
9    0.011199     0.010207 -0.011199  -0.010206  7.942186e-08  6.192654e-08   0.000583  0.000583  0.000583    0.999836        0.000506  0.999829      0.000535         0.253608
10   0.021286     0.018021 -0.021286  -0.018021  3.805357e-07  2.967100e-07   0.001074  0.001074  0.001074    0.999853        0.000466  0.999836      0.000506         0.466803
11   0.014316     0.009846 -0.014316  -0.009846  1.477271e-07  1.151853e-07   0.000669  0.000669  0.000669    0.999731        0.001175  0.999721      0.001138         0.290848
12  -0.003349    -0.005515  0.003374   0.005535  2.525001e-05  1.968785e-05   0.009429  0.009429  0.009429    0.987633        0.254672  0.992217      0.154235         4.099766
13  -0.002902    -0.004800  0.002923   0.004817  2.153123e-05  1.678825e-05   0.008196  0.008196  0.008196    0.987724        0.253279  0.992217      0.154235         3.563693
14  -0.001802    -0.003158  0.001814   0.003168  1.235896e-05  9.636483e-06   0.005335  0.005335  0.005335    0.983710        0.348220  0.987633      0.254672         2.319614
15   0.003551     0.005407 -0.003500  -0.005367  5.115026e-05  3.988270e-05   0.009358  0.009358  0.009358    0.997643        0.034359  0.988176      0.220887         4.068873
16  -0.001220    -0.000971  0.001222   0.000973  2.155654e-06  1.680799e-06   0.002271  0.002271  0.002271    0.990744        0.151600  0.992481      0.150580         0.987475
--------------------------------------------------

TRAFO:
    p_hv_mw  q_hv_mvar   p_lv_mw  q_lv_mvar    pl_mw   ql_mvar   i_hv_ka   i_lv_ka  vm_hv_pu  va_hv_degree  vm_lv_pu  va_lv_degree  loading_percent
0  0.007508   0.012540 -0.007498  -0.011541  0.00001  0.001000  0.000563  0.019865  0.999929      0.000416  0.999929      0.000423         0.146169
1  0.012380   0.017440 -0.012370  -0.016441  0.00001  0.000999  0.000823  0.029704  0.999757      0.001142  0.999757      0.001152         0.213927
2  0.041474   0.043644 -0.041464  -0.039644  0.00001  0.004000  0.000497  0.002208  1.000000      0.000000  1.000000      0.000006         0.150518
3  0.052537   0.052317 -0.052527  -0.048317  0.00001  0.004000  0.000612  0.002747  1.000000      0.000000  1.000000      0.000007         0.185358
--------------------------------------------------
